/*--------------------------------*- C++ -*----------------------------------*\
| =========                 |                                                 |
| \\      /  F ield         | OpenFOAM: The Open Source CFD Toolbox           |
|  \\    /   O peration     | Version:  2312                                  |
|   \\  /    A nd           | Website:  www.openfoam.com                      |
|    \\/     M anipulation  |                                                 |
\*---------------------------------------------------------------------------*/
FoamFile
{
    version     2.0;
    format      ascii;
    arch        "LSB;label=32;scalar=64";
    class       polyBoundaryMesh;
    location    "constant/cooler/polyMesh";
    object      boundary;
}
// * * * * * * * * * * * * * * * * * * * * * * * * * * * * * * * * * * * * * //

5
(
    emptyPatch
    {
        type            empty;
        inGroups        1(empty);
        nFaces          1500;
        startFace       1345;
    }
    minY
    {
        type            patch;
        nFaces          5;
        startFace       2845;
    }
    maxY
    {
        type            patch;
        nFaces          5;
        startFace       2850;
    }
    maxX
    {
        type            wall;
        inGroups        1(wall);
        nFaces          150;
        startFace       2855;
    }
    cooler_to_water
    {
        type            mappedWall;
        inGroups        1(wall);
        nFaces          150;
        startFace       3005;
        sampleMode      nearestPatchFace;
        sampleRegion    water;
        samplePatch     water_to_cooler;
    }
)

// ************************************************************************* //
