/*--------------------------------*- C++ -*----------------------------------*\
  =========                 |
  \\      /  F ield         | OpenFOAM: The Open Source CFD Toolbox
   \\    /   O peration     | Website:  https://openfoam.org
    \\  /    A nd           | Version:  6
     \\/     M anipulation  |
\*---------------------------------------------------------------------------*/
FoamFile
{
    version         2;
    format          ascii;
    class           dictionary;
    location        "system";
    object          controlDict;
}

application     reactingTwoPhaseEulerFoam_Modif1;

startFrom       latestTime; //startTime;

startTime       0;

stopAt          endTime;

endTime         15;

deltaT          0.0001;

writeControl    timeStep; //adjustableRunTime; //timeStep; //adjustableRunTime;

writeInterval   200; //0.05;

purgeWrite      20;

writeFormat     ascii;

writePrecision  9;

writeCompression off;

timeFormat      general;

timePrecision   6;

runTimeModifiable yes;

adjustTimeStep  yes; //no; //yes;

maxCo           0.6; //0.5;

maxDeltaT       0.05;

maxDi       80;



functions
{
	
	#include "postproceso/maxFields"	

	#include "postproceso/alphaAverageOutlet"	

	#include "postproceso/TAverageOutletPrimario"

	#include "postproceso/TAverageOutletSecundario"	

//  	#include "postproceso/averageFieldSteam"	

//  	#include "postproceso/rhoPhiSecundario"	

	//#include "postproceso/caudalPrimario"	
	
	#include "postproceso/averageFields"	

	#include "postproceso/averageFieldsAnulo"	
		
	//#include "postproceso/planospromedios"	

	//#include "postproceso/planospromediosAnulo"	

	//#include "postproceso/rhoPhiSecundarioMean"	

}


// ************************************************************************* //
