/*--------------------------------*- C++ -*----------------------------------*\
  =========                 |
  \\      /  F ield         | OpenFOAM: The Open Source CFD Toolbox
   \\    /   O peration     | Website:  https://openfoam.org
    \\  /    A nd           | Version:  6
     \\/     M anipulation  |
\*---------------------------------------------------------------------------*/
FoamFile
{
    version         2;
    format          ascii;
    class           dictionary;
    location        "system";
    object          controlDict;
}

application     reactingTwoPhaseEulerFoam_Modif1;

startFrom       latestTime; //startTime;

startTime       0;

stopAt          endTime;

endTime         25;

deltaT          0.0001;

writeControl    adjustableRunTime; //timeStep; //adjustableRunTime; //timeStep; //adjustableRunTime;

writeInterval   0.25; //0.05;

purgeWrite      10;

writeFormat     ascii;

writePrecision  9;

writeCompression off;

timeFormat      general;

timePrecision   6;

runTimeModifiable yes;

adjustTimeStep  yes; //no; //yes;

maxCo           1.0;

maxDeltaT       0.01;



functions
{
	#include "postproceso/maxFields"	
	
	#include "postproceso/averageFields"	
	
	#include "postproceso/planospromedios"	

  	#include "postproceso/averageFieldSteam"	
}


// ************************************************************************* //
