/*--------------------------------*- C++ -*----------------------------------*\
|       ______          _   __           ______                               |
|      / ____/  ___    / | / /          / ____/  ____   ____ _   ____ ___     |
|     / / __   / _ \  /  |/ /  ______  / /_     / __ \ / __ `/  / __ `__ \    |
|    / /_/ /  /  __/ / /|  /  /_____/ / __/    / /_/ // /_/ /  / / / / / /    |
|    \____/   \___/ /_/ |_/          /_/       \____/ \__,_/  /_/ /_/ /_/     |
|    Copyright (C) 2015 - 2022 EPFL                                           |
\*---------------------------------------------------------------------------*/
FoamFile
{
    version     2.0;
    format      ascii;
    class       dictionary;
    object      controlDict;
}
application     GeN-Foam;

startFrom       startTime;

startTime       100;

stopAt          endTime;

endTime         200;

deltaT          1e-06;

writeControl    timeStep;

writeInterval   10;

purgeWrite      0;

writeFormat     ascii;

writePrecision  7;

writeCompression false;

timeFormat      general;

timePrecision   8;

runTimeModifiable false;

solveFluidMechanics true;

solveEnergy     true;

solveNeutronics false;

solveThermalMechanics false;

removeFluidBaffles true;

adjustTimeStep  true;

maxDeltaT       1;

maxCo           5;

maxPowerVariation 0.01;

// ************************************************************************* //
