/*--------------------------------*- C++ -*----------------------------------*\
| =========                 |                                                 |
| \\      /  F ield         | OpenFOAM: The Open Source CFD Toolbox           |
|  \\    /   O peration     | Version:  2312                                  |
|   \\  /    A nd           | Website:  www.openfoam.com                      |
|    \\/     M anipulation  |                                                 |
\*---------------------------------------------------------------------------*/
FoamFile
{
    version     2.0;
    format      ascii;
    arch        "LSB;label=32;scalar=64";
    class       polyBoundaryMesh;
    location    "constant/polyMesh";
    object      boundary;
}
// * * * * * * * * * * * * * * * * * * * * * * * * * * * * * * * * * * * * * //

5
(
    emptyPatch
    {
        type            empty;
        inGroups        1(empty);
        nFaces          14700;
        startFace       14620;
    }
    minY
    {
        type            patch;
        nFaces          50;
        startFace       29320;
    }
    maxY
    {
        type            patch;
        nFaces          50;
        startFace       29370;
    }
    maxX
    {
        type            wall;
        inGroups        1(wall);
        nFaces          150;
        startFace       29420;
    }
    minX
    {
        type            wall;
        inGroups        1(wall);
        nFaces          120;
        startFace       29570;
    }
)

// ************************************************************************* //
