/*--------------------------------*- C++ -*----------------------------------*\
| =========                 |                                                 |
| \\      /  F ield         | OpenFOAM: The Open Source CFD Toolbox           |
|  \\    /   O peration     | Version:  2306                                  |
|   \\  /    A nd           | Website:  www.openfoam.com                      |
|    \\/     M anipulation  |                                                 |
\*---------------------------------------------------------------------------*/
FoamFile
{
    version     2.0;
    format      ascii;
    arch        "LSB;label=32;scalar=64";
    class       volVectorField;
    location    "0/coolant";
    object      U;
}
// * * * * * * * * * * * * * * * * * * * * * * * * * * * * * * * * * * * * * //

dimensions      [ 0 1 -1 0 0 0 0 ];

internalField   uniform ( 0 0 0.25 );

boundaryField
{
    inlet
    {
        type            fixedValue;
        value           $internalField;
    }
    front
    {
        type            symmetry;
        value           $internalField;
    }
    right
    {
        type            zeroGradient;
        value           $internalField;
    }
    back
    {
        type            zeroGradient;
        value           $internalField;
    }
    left
    {
        type            zeroGradient;
        value           $internalField;
    }
    coolant_to_cladding
    {
        type            noSlip;
        value           $internalField;
    }
    outlet
    {
        type            inletOutlet;
        value           $internalField;
        inletValue      $internalField;
    }
}


// ************************************************************************* //
