/*--------------------------------*- C++ -*----------------------------------*\
| =========                 |                                                 |
| \\      /  F ield         | OpenFOAM: The Open Source CFD Toolbox           |
|  \\    /   O peration     | Version:  2306                                  |
|   \\  /    A nd           | Website:  www.openfoam.com                      |
|    \\/     M anipulation  |                                                 |
\*---------------------------------------------------------------------------*/
// * * * * * * * * * * * * * * * * * * * * * * * * * * * * * * * * * * * * * //
FoamFile
{
    version         2;
    format          ascii;
    arch            "LSB;label=32;scalar=64";
    class           volScalarField;
    location        "0/coolant";
    object          cellToRegion;
}

dimensions      [ 0 0 0 0 0 0 0 ];

internalField   uniform 0;

boundaryField
{
    inlet
    {
        type            zeroGradient;
    }
    front
    {
        type            symmetry;
    }
    right
    {
        type            zeroGradient;
    }
    back
    {
        type            zeroGradient;
    }
    left
    {
        type            zeroGradient;
    }
    coolant_to_cladding
    {
        type            zeroGradient;
    }
    outlet
    {
        type            zeroGradient;
    }
}


// ************************************************************************* //
