/*--------------------------------*- C++ -*----------------------------------*\
| =========                 |                                                 |
| \\      /  F ield         | OpenFOAM: The Open Source CFD Toolbox           |
|  \\    /   O peration     | Version:  2312                                  |
|   \\  /    A nd           | Website:  www.openfoam.com                      |
|    \\/     M anipulation  |                                                 |
\*---------------------------------------------------------------------------*/
FoamFile
{
    version     2.0;
    format      ascii;
    arch        "LSB;label=32;scalar=64";
    class       polyBoundaryMesh;
    location    "constant/water/polyMesh";
    object      boundary;
}
// * * * * * * * * * * * * * * * * * * * * * * * * * * * * * * * * * * * * * //

6
(
    emptyPatch
    {
        type            empty;
        inGroups        1(empty);
        nFaces          2992;
        startFace       2914;
    }
    minY
    {
        type            patch;
        nFaces          0;
        startFace       5906;
    }
    maxY
    {
        type            patch;
        nFaces          40;
        startFace       5906;
    }
    maxX
    {
        type            wall;
        inGroups        1(wall);
        nFaces          38;
        startFace       5946;
    }
    water_to_heater
    {
        type            mappedWall;
        inGroups        2(wall mappedPatch);
        nFaces          59;
        startFace       5984;
        sampleMode      nearestPatchFace;
        sampleRegion    heater;
        samplePatch     heater_to_water;
    }
    procBoundary0to1
    {
        type            processor;
        inGroups        1(processor);
        nFaces          41;
        startFace       6043;
        matchTolerance  0.0001;
        transform       unknown;
        myProcNo        0;
        neighbProcNo    1;
    }
)

// ************************************************************************* //
