/*--------------------------------*- C++ -*----------------------------------*\
| =========                 |                                                 |
| \\      /  F ield         | OpenFOAM: The Open Source CFD Toolbox           |
|  \\    /   O peration     | Version:  2312                                  |
|   \\  /    A nd           | Website:  www.openfoam.com                      |
|    \\/     M anipulation  |                                                 |
\*---------------------------------------------------------------------------*/
FoamFile
{
    version     2.0;
    format      ascii;
    arch        "LSB;label=32;scalar=64";
    class       polyBoundaryMesh;
    location    "constant/heater/polyMesh";
    object      boundary;
}
// * * * * * * * * * * * * * * * * * * * * * * * * * * * * * * * * * * * * * //

6
(
    emptyPatch
    {
        type            empty;
        inGroups        1(empty);
        nFaces          150;
        startFace       130;
    }
    minY
    {
        type            patch;
        nFaces          0;
        startFace       280;
    }
    maxY
    {
        type            patch;
        nFaces          5;
        startFace       280;
    }
    minX
    {
        type            wall;
        inGroups        1(wall);
        nFaces          15;
        startFace       285;
    }
    heater_to_water
    {
        type            mappedWall;
        inGroups        2(wall mappedPatch);
        nFaces          30;
        startFace       300;
        sampleMode      nearestPatchFace;
        sampleRegion    water;
        samplePatch     water_to_heater;
    }
    procBoundary0to1
    {
        type            processor;
        inGroups        1(processor);
        nFaces          5;
        startFace       330;
        matchTolerance  0.0001;
        transform       unknown;
        myProcNo        0;
        neighbProcNo    1;
    }
)

// ************************************************************************* //
