/*--------------------------------*- C++ -*----------------------------------*\
|       ______          _   __           ______                               |
|      / ____/  ___    / | / /          / ____/  ____   ____ _   ____ ___     |
|     / / __   / _ \  /  |/ /  ______  / /_     / __ \ / __ `/  / __ `__ \    |
|    / /_/ /  /  __/ / /|  /  /_____/ / __/    / /_/ // /_/ /  / / / / / /    |
|    \____/   \___/ /_/ |_/          /_/       \____/ \__,_/  /_/ /_/ /_/     |
|    Copyright (C) 2015 - 2022 EPFL                                           |
\*---------------------------------------------------------------------------*/
FoamFile
{
    version     2.0;
    format      ascii;
    class       dictionary;
    object      fvSolution;
}
// * * * * * * * * * * * * * * * * * * * * * * * * * * * * * * * * * * * * * //

solvers
{
    p_rgh
    {
        solver          GAMG;
        smoother        DIC;
        tolerance       1e-8;
        relTol          0;
    }

    p_rghFinal
    {
        $p_rgh;
        relTol          0;
    }

    "e.*"
    {
        solver          smoothSolver;
        smoother        symGaussSeidel;
        tolerance       1e-8;
        relTol          0;
        minIter         0;
    }

    "h.*"
    {
        solver          smoothSolver;
        smoother        symGaussSeidel;
        tolerance       1e-8;
        relTol          0;
        minIter         0;
    }

    ".*"
    {
        solver          PBiCGStab;
        preconditioner  diagonal;
        tolerance       1e-06;
        relTol          0.001;
    }

    "alpha"
    {
        solver              implicitUpwind;
        solvePhase          vapour;
        //adjustSubCycles     true;
        //alphaMaxCo          0.25;   
    }

    "(k|epsilon|Theta).*"
    {
        solver          smoothSolver;
        smoother        symGaussSeidel;
        tolerance       1e-7;
        relTol          0;
        minIter         1;
    }
}

PIMPLE
{
    minNOuterCorrectors         3;
    nCorrectors                 12;
    correctUntilConvergence     true;
    nNonOrthogonalCorrectors    0;
    partialEliminationMode      implicit;
    momentumMode                faceCentered;
    oscillationLimiterFraction  0;
    massTransferSafetyFactor    0.40;
    enthalpyStabilizationMode   cutoff;

    residualControl
    {
        p_rgh
        {
            tolerance                           1e-05;
            relTol                              0;
            useFirstPISOInitialResidual         true;
        }
        h.liquid
        {
            tolerance       1e-06;
            relTol          0;
        }
    }
}

relaxationFactors
{
    equations
    {
        ".*"            1;
    }

    fields
    {
        "dmdt.*"            0.1;
        "T.interface"       0.25;
        "T.interfaceFinal"  0.25;
        "alpha.*"           0.5;
        "phi.*"             0.8;
    } 
}

// ************************************************************************* //
