/*--------------------------------*- C++ -*----------------------------------*\
|       ______          _   __           ______                               |
|      / ____/  ___    / | / /          / ____/  ____   ____ _   ____ ___     |
|     / / __   / _ \  /  |/ /  ______  / /_     / __ \ / __ `/  / __ `__ \    |
|    / /_/ /  /  __/ / /|  /  /_____/ / __/    / /_/ // /_/ /  / / / / / /    |
|    \____/   \___/ /_/ |_/          /_/       \____/ \__,_/  /_/ /_/ /_/     |
|    Copyright (C) 2015 - 2022 EPFL                                           |
\*---------------------------------------------------------------------------*/
FoamFile
{
    version     2.0;
    format      ascii;
    class       dictionary;
    object      blockMeshDict;
}
// * * * * * * * * * * * * * * * * * * * * * * * * * * * * * * * * * * * * * //

convertToMeters 1;

vertices
(
    // left and down region
    (0      0       0)   //0
    (0.63    0       0)
    (0.63    0.00725  0)
    (0      0.00725  0)

    (0      0       0.00725) //4
    (0.63    0       0.00725)
    (0.63    0.00725  0.00725)
    (0      0.00725  0.00725)

    (0      0       0.01985) //8
    (0.63    0       0.01985)
    (0.63    0.00725  0.01985)
    (0      0.00725  0.01985)
    
    (0      0       0.03245)  //12
    (0.63    0       0.03245)
    (0.63    0.00725  0.03245)
    (0      0.00725  0.03245)
    
    (0      0.01985       0)   //16  
    (0.63    0.01985       0)     
    (0.63    0.03245  0)    
    (0      0.03245  0)    

    (0      0.01985  0.00725) //20
    (0.63    0.01985  0.00725)
    (0.63    0.03245  0.00725)
    (0      0.03245  0.00725)

    (0      0.01985  0.01985) //24
    (0.63    0.01985  0.01985)
    (0.63    0.03245  0.01985)
    (0      0.03245  0.01985)
    
    (0      0.01985  0.03245)  //28
    (0.63    0.01985  0.03245)
    (0.63    0.03245  0.03245)
    (0      0.03245  0.03245)
    
    (4.288    0       0)   //32
    (4.288    0.00725  0)

    (4.288    0       0.00725) //34
    (4.288    0.00725  0.00725)

    (4.288    0       0.01985) //36
    (4.288    0.00725  0.01985)
    
    (4.288    0       0.03245)  //38
    (4.288    0.00725  0.03245)
    
    
    (4.288    0.01985       0)     //40
    (4.288    0.03245  0)    

    (4.288    0.01985  0.00725) //42
    (4.288    0.03245  0.00725)

    (4.288    0.01985  0.01985) //44
    (4.288    0.03245  0.01985)
    
    (4.288    0.01985  0.03245)  //46
    (4.288    0.03245  0.03245)

    (5.388    0       0)   //48
    (5.388    0.00725  0)

    (5.388    0       0.00725) //50
    (5.388    0.00725  0.00725)

    (5.388    0       0.01985) //52
    (5.388    0.00725  0.01985)
    
    (5.388    0       0.03245)  //54
    (5.388    0.00725  0.03245)
    
    
    (5.388    0.01985       0)     //56
    (5.388    0.03245  0)    

    (5.388    0.01985  0.00725) //58
    (5.388    0.03245  0.00725)

    (5.388    0.01985  0.01985) //60
    (5.388    0.03245  0.01985)
    
    (5.388    0.01985  0.03245)  //62
    (5.388    0.03245  0.03245)

    // right and down region
    (0      0       0.05765)   //64
    (0.63    0       0.05765)
    (0.63    0.00725  0.05765)
    (0      0.00725  0.05765)

    (0      0       0.06490) //68
    (0.63    0       0.06490)
    (0.63    0.00725  0.06490)
    (0      0.00725  0.06490)

    (0      0       0.04505) //72
    (0.63    0       0.04505)
    (0.63    0.00725  0.04505)
    (0      0.00725  0.04505)
    
    (0      0.01985       0.06490)   //76  
    (0.63    0.01985       0.06490)     
    (0.63    0.03245  0.06490)    
    (0      0.03245  0.06490)    

    (0      0.01985  0.05765) //80
    (0.63    0.01985  0.05765)
    (0.63    0.03245  0.05765)
    (0      0.03245  0.05765)

    (0      0.01985  0.04505) //84
    (0.63    0.01985  0.04505)
    (0.63    0.03245  0.04505)
    (0      0.03245  0.04505)
    
    (4.288    0       0.05765)   //88
    (4.288    0.00725  0.05765)

    (4.288    0       0.06490) //90
    (4.288    0.00725  0.06490)

    (4.288    0       0.04505) //92
    (4.288    0.00725  0.04505)
    
    (4.288    0.01985       0.06490)     //94
    (4.288    0.03245  0.06490)    

    (4.288    0.01985  0.05765) //96
    (4.288    0.03245  0.05765)

    (4.288    0.01985  0.04505) //98
    (4.288    0.03245  0.04505)

    (5.388    0       0.05765)   //100
    (5.388    0.00725  0.05765)

    (5.388    0       0.06490) //102
    (5.388    0.00725  0.06490)

    (5.388    0       0.04505) //104
    (5.388    0.00725  0.04505)
    
    (5.388    0.01985       0.06490)     //106
    (5.388    0.03245  0.06490)    

    (5.388    0.01985  0.05765) //108
    (5.388    0.03245  0.05765)

    (5.388    0.01985  0.04505) //110
    (5.388    0.03245  0.04505)

);

blocks
(
    //left and down region
    hex (0 1 2 3 4 5 6 7) leftdownregioninletcorner (5 1 1) (1 1 1)                  //@1
    hex (4 5 6 7 8 9 10 11) leftdownregioninletside1 (5 1 1) (1 1 1)                 //@2
    hex (8 9 10 11 12 13 14 15) leftdownregioninletside2 (5 1 1) (1 1 1)             //@3
    
    hex (3 2 17 16 7 6 21 20) leftdownregioninletside1 (5 1 1) (1 1 1)               //@4
    hex (7 6 21 20 11 10 25 24) leftdownregioninletcenter1 (5 1 1) (1 1 1)           //@6
    hex (11 10 25 24 15 14 29 28) leftdownregioninletcenter1 (5 1 1) (1 1 1)         //@8
    
    hex (16 17 18 19 20 21 22 23) leftdownregioninletside1 (5 1 1) (1 1 1)           //@5   
    hex (20 21 22 23 24 25 26 27) leftdownregioninletcenter2 (5 1 1) (1 1 1)         //@7
    hex (24 25 26 27 28 29 30 31) leftdownregioninletcenter2 (5 1 1) (1 1 1)         //@9 

    hex (1 32 33 2 5 34 35 6) leftdownregionheatedcorner (50 1 1)(1 1 1)             
    hex (5 34 35 6 9 36 37 10) leftdownregionheatedside1 (50 1 1)(1 1 1)
    hex (9 36 37 10 13 38 39 14) leftdownregionheatedside2 (50 1 1)(1 1 1)
    
    hex (2 33 40 17 6 35 42 21) leftdownregionheatedside1 (50 1 1)(1 1 1)
    hex (6 35 42 21 10 37 44 25) leftdownregionheatedcenter1 (50 1 1)(1 1 1)
    hex (10 37 44 25 14 39 46 29) leftdownregionheatedcenter1 (50 1 1)(1 1 1)
    
    hex (17 40 41 18 21 42 43 22) leftdownregionheatedside1 (50 1 1)(1 1 1)
    hex (21 42 43 22 25 44 45 26) leftdownregionheatedcenter2 (50 1 1)(1 1 1)
    hex (25 44 45 26 29 46 47 30) leftdownregionheatedcenter2 (50 1 1)(1 1 1)

    hex (32 48 49 33 34 50 51 35) leftdownregionoutletcorner (10 1 1) (1 1 1)
    hex (34 50 51 35 36 52 53 37) leftdownregionoutletside1 (10 1 1) (1 1 1)
    hex (36 52 53 37 38 54 55 39) leftdownregionoutletside2 (10 1 1) (1 1 1)

    hex (33 49 56 40 35 51 58 42) leftdownregionoutletside1 (10 1 1) (1 1 1)
    hex (35 51 58 42 37 53 60 44) leftdownregionoutletcenter1 (10 1 1) (1 1 1)
    hex (37 53 60 44 39 55 62 46) leftdownregionoutletcenter1 (10 1 1) (1 1 1)

    hex (40 56 57 41 42 58 59 43) leftdownregionoutletside1 (10 1 1) (1 1 1)
    hex (42 58 59 43 44 60 61 45) leftdownregionoutletcenter2 (10 1 1) (1 1 1)
    hex (44 60 61 45 46 62 63 47) leftdownregionoutletcenter2 (10 1 1) (1 1 1)

    //right and down region
    hex (64 65 66 67 68 69 70 71) rightdownregioninletcorner (5 1 1) (1 1 1)                  //@1
    hex (72 73 74 75 64 65 66 67) rightdownregioninletside (5 1 1) (1 1 1)                    //@2
    hex (12 13 14 15 72 73 74 75) rightdownregioninletside (5 1 1) (1 1 1)                    //@3
    
    hex (67 66 81 80 71 70 77 76) rightdownregioninletside (5 1 1) (1 1 1)                    //@4
    hex (75 74 85 84 67 66 81 80) rightdownregioninletcenter1 (5 1 1) (1 1 1)                 //@6
    hex (15 14 29 28 75 74 85 84) rightdownregioninletcenter1 (5 1 1) (1 1 1)                 //@8
    
    hex (80 81 82 83 76 77 78 79) rightdownregioninletside (5 1 1) (1 1 1)                    //@5   
    hex (84 85 86 87 80 81 82 83) rightdownregioninletcenter2 (5 1 1) (1 1 1)                 //@7
    hex (28 29 30 31 84 85 86 87) rightdownregioninletcenter2 (5 1 1) (1 1 1)                 //@9 

    hex (65 88 89 66 69 90 91 70) rightdownregionheatedcorner (50 1 1) (1 1 1)                  
    hex (73 92 93 74 65 88 89 66) rightdownregionheatedside (50 1 1) (1 1 1)                    
    hex (13 38 39 14 73 92 93 74) rightdownregionheatedside (50 1 1) (1 1 1)                    
    
    hex (66 89 96 81 70 91 94 77) rightdownregionheatedside (50 1 1) (1 1 1)                    
    hex (74 93 98 85 66 89 96 81) rightdownregionheatedcenter1 (50 1 1) (1 1 1)                 
    hex (14 39 46 29 74 93 98 85) rightdownregionheatedcenter1 (50 1 1) (1 1 1)                 
    
    hex (81 96 97 82 77 94 95 78) rightdownregionheatedside (50 1 1) (1 1 1)                       
    hex (85 98 99 86 81 96 97 82) rightdownregionheatedcenter2 (50 1 1) (1 1 1)                 
    hex (29 46 47 30 85 98 99 86) rightdownregionheatedcenter2 (50 1 1) (1 1 1)                  

    hex (88 100 101 89 90 102 103 91) rightdownregionoutletcorner (10 1 1) (1 1 1)                  
    hex (92 104 105 93 88 100 101 89) rightdownregionoutletside (10 1 1) (1 1 1)                    
    hex (38 54 55 39 92 104 105 93) rightdownregionoutletside (10 1 1) (1 1 1)                    
    
    hex (89 101 108 96 91 103 106 94) rightdownregionoutletside (10 1 1) (1 1 1)                    
    hex (93 105 110 98 89 101 108 96) rightdownregionoutletcenter1 (10 1 1) (1 1 1)                 
    hex (39 55 62 46 93 105 110 98) rightdownregionoutletcenter1 (10 1 1) (1 1 1)                 
    
    hex (96 108 109 97 94 106 107 95) rightdownregionoutletside (10 1 1) (1 1 1)                       
    hex (98 110 111 99 96 108 109 97) rightdownregionoutletcenter2 (10 1 1) (1 1 1)                 
    hex (46 62 63 47 98 110 111 99) rightdownregionoutletcenter2 (10 1 1) (1 1 1)                  

);

edges
(
);

boundary
(
    inlet
    {
        type patch;
        faces
        (
            // left and down region
            (0 4 7 3)
            (4 8 11 7)
            (8 12 15 11)
            
            (3 7 20 16)
            (7 11 24 20)
            (11 15 28 24)
            
            (16 20 23 19)
            (20 24 27 23)
            (24 28 31 27)

            //right and down region
            (64 68 71 67)
            (72 64 67 75)
            (12 72 75 15)

            (67 71 76 80)
            (75 67 80 84)
            (15 75 84 28)

            (80 76 79 83)
            (84 80 83 87)
            (28 84 87 31)
        );
    }

    outlet
    {
        type patch;
        faces
        (
            // left and down region
            (48 49 51 50)
            (50 51 53 52)
            (52 53 55 54)
            
            (49 56 58 51)
            (51 58 60 53)
            (53 60 62 55)
            
            (56 57 59 58)
            (58 59 61 60)
            (60 61 63 62)

            //right and down region
            (100 101 103 102)
            (104 105 101 100)
            (54 55 105 104)

            (101 108 106 103)
            (105 110 108 101)
            (55 62 110 105)

            (108 109 107 106)
            (110 111 109 108)
            (62 63 111 110)
        );
    }

    fixedWalls
    {
        type wall;
        faces
        (
            // left and down region
            (0 1 5 4)//down (bottom)
            (4 5 9 8)
            (8 9 13 12)
                    
            (1 32 34 5)
            (5 34 36 9)
            (9 36 38 13)

            (32 48 50 34)
            (34 50 52 36)
            (36 52 54 38)
            
            (3 2 1 0)//left (back)
            (16 17 2 3)
            (19 18 17 16)

            (2 33 32 1)
            (17 40 33 2)
            (18 41 40 17)

            (33 49 48 32)
            (40 56 49 33)
            (41 57 56 40)

            //right and down region
            (64 65 69 68)//down (bottom)
            (72 73 65 64)
            (12 13 73 72)

            (65 88 90 69)
            (73 92 88 65)
            (13 38 92 73)

            (88 100 102 90)
            (92 104 100 88)
            (38 54 104 92)

            (68 69 70 71)//right (front)
            (71 70 77 76)
            (76 77 78 79)

            (69 90 91 70)
            (70 91 94 77)
            (77 94 95 78)

            (90 102 103 91)
            (91 103 106 94)
            (94 106 107 95)
        );
    }
    
    top
    {
        type symmetry;
        faces
        (
            // left and down region
            (18 19 23 22)//up (top)
            (22 23 27 26)
            (26 27 31 30)

            (41 18 22 43)
            (43 22 26 45)
            (45 26 30 47)

            (57 41 43 59)
            (59 43 45 61)
            (61 45 47 63)
          
            //right and down region
            (82 83 79 78)//up (top)
            (86 87 83 82)
            (30 31 87 86)
            
            (97 82 78 95)
            (99 86 82 97)
            (47 30 86 99)

            (109 97 95 107)
            (111 99 97 109)
            (63 47 99 111)

        );
    }
);

mergePatchPairs
(
);

// ************************************************************************* //
