/*--------------------------------*- C++ -*----------------------------------*\
| =========                 |                                                 |
| \\      /  F ield         | OpenFOAM: The Open Source CFD Toolbox           |
|  \\    /   O peration     | Version:  2312                                  |
|   \\  /    A nd           | Website:  www.openfoam.com                      |
|    \\/     M anipulation  |                                                 |
\*---------------------------------------------------------------------------*/
FoamFile
{
    version     2.0;
    format      ascii;
    arch        "LSB;label=32;scalar=64";
    class       polyBoundaryMesh;
    location    "constant/heater/polyMesh";
    object      boundary;
}
// * * * * * * * * * * * * * * * * * * * * * * * * * * * * * * * * * * * * * //

5
(
    emptyPatch
    {
        type            empty;
        inGroups        1(empty);
        nFaces          600;
        startFace       535;
    }
    minY
    {
        type            patch;
        nFaces          5;
        startFace       1135;
    }
    maxY
    {
        type            patch;
        nFaces          5;
        startFace       1140;
    }
    minX
    {
        type            wall;
        inGroups        1(wall);
        nFaces          60;
        startFace       1145;
    }
    heater_to_water
    {
        type            mappedWall;
        inGroups        1(wall);
        nFaces          120;
        startFace       1205;
        sampleMode      nearestPatchFace;
        sampleRegion    water;
        samplePatch     water_to_heater;
    }
)

// ************************************************************************* //
