/*--------------------------------*- C++ -*----------------------------------*\
| =========                 |                                                 |
| \\      /  F ield         | OpenFOAM: The Open Source CFD Toolbox           |
|  \\    /   O peration     | Version:  v2306                                 |
|   \\  /    A nd           | Website:  www.openfoam.com                      |
|    \\/     M anipulation  |                                                 |
\*---------------------------------------------------------------------------*/
FoamFile
{
    version     2.0;
    format      ascii;
    class       dictionary;
    object      blockMeshDict;
}
// * * * * * * * * * * * * * * * * * * * * * * * * * * * * * * * * * * * * * //

scale   1e-3;

vertices
(
//B1
    (0    0 -1) //0
    (6.52    0 -1) //1
    (6.52  200 -1) //2
    (0  200 -1) //3

    (0    0  1) //4
    (6.52    0  1) //5
    (6.52  200  1) //6
    (0  200  1) //7
//B2	
    (6.52    0 -1) //8
    (7.02   0 -1) //9
    (7.02 200 -1) //10
    (6.52  200 -1) //11

    (6.52    0  1) //12
    (7.02   0  1) //13
    (7.02 200  1) //14
    (6.52  200  1) //15
//B3
    (7.02    0 -1) //16
    (12    0 -1) //17
    (12  200 -1) //18
    (7.02  200 -1) //19

    (7.02    0  1) //20
    (12    0  1) //21
    (12  200  1) //22
    (7.02  200  1) //23
);

blocks
(
    hex (0 1 2 3 4 5 6 7) (5 60 1) simpleGrading (1 1 1)
	hex (8 9 10 11 12 13 14 15) (20 75 1) simpleGrading (2.5 1 1)
    hex (16 17 18 19 20 21 22 23) (20 75 1) simpleGrading (0.4 1 1)
);

edges
(
);

boundary
(
    merge1 // b1 sag
    {
        type patch;
        faces
        (
            (1 2 6 5)
        );
    }    
	merge2 // b2 sol
    {
        type patch;
        faces
        (
            (8 11 15 12)
        );
    }
	merge3 // b2 sag
    {
        type patch;
        faces
        (
            (9 10 14 13)
        );
    }
    merge4 // b3 sol
    {
        type patch;
        faces
        (
            (16 19 23 20)
        );
    }

    emptyPatch
    {
        type empty;
        faces
        (
            (0 3 2 1)
            (4 5 6 7)
            (8 11 10 9)
            (12 13 14 15)
			(16 19 18 17)
            (20 21 22 23)
        );
    }
    minY
    {
        type patch;
        faces
        (
            (1 5 4 0)
			(9 13 12 8)
			(17 21 20 16)
        );
    }
    maxY
    {
        type patch;
        faces
        (
            (3 7 6 2)
			(11 15 14 10)
			(19 23 22 18)
        );
    }
    maxX
    {
        type wall;
        faces
        (
            (18 22 21 17)
        );
    }
    minX
    {
        type wall;
        faces
        (
            (0 3 4 7)
        );
    }	
);

mergePatchPairs
(
	(merge1 merge2)
	(merge3 merge4)
);


// ************************************************************************* //
