/*--------------------------------*- C++ -*----------------------------------*\
  =========                 |
  \\      /  F ield         | OpenFOAM: The Open Source CFD Toolbox
   \\    /   O peration     | Website:  https://openfoam.org
    \\  /    A nd           | Version:  6
     \\/     M anipulation  |
\*---------------------------------------------------------------------------*/
FoamFile
{
    version     2.0;
    format      ascii;
    class       dictionary;
    location    "constant";
    object      thermophysicalProperties.gas;
}
// * * * * * * * * * * * * * * * * * * * * * * * * * * * * * * * * * * * * * //

thermoType
{
    type            heRhoThermo;
    mixture         pureMixture;
    transport       const;
    thermo          hRefConst;
    equationOfState perfectGas;
    specie          specie;
    energy          sensibleEnthalpy;
}

dpdt no;

mixture
{
    specie
    {
        molWeight       18.0153;
    }
    equationOfState
    {
        rho        22.6244;
    }
    thermodynamics
    {
        Hf          0;
        Cp          4064;
        Tref        533;
        Href        2797422;
    }
    transport
    {
        mu          17.12e-6;
        Pr          1.368;
    }
}

// ************************************************************************* //
