/*--------------------------------*- C++ -*----------------------------------*\
  =========                 |
  \\      /  F ield         | OpenFOAM: The Open Source CFD Toolbox
   \\    /   O peration     | Website:  https://openfoam.org
    \\  /    A nd           | Version:  6
     \\/     M anipulation  |
\*---------------------------------------------------------------------------*/
FoamFile
{
    version     2.0;
    format      ascii;
    class       dictionary;
    location    "constant";
    object      turbulenceProperties.water;
}
// * * * * * * * * * * * * * * * * * * * * * * * * * * * * * * * * * * * * * //

simulationType  RAS;

RAS
{
	// Esto estaba seteando en el tutorial
    RASModel LaheyKEpsilon;

    //turbulence      on;
   // printCoeffs     on;

	
	// Esto tenia seteado yo en el experimento
    //RASModel  	kEpsilon; //kOmegaSST; //mixtureKEpsilon; //kEpsilon;  //kOmegaSST; //omega; //kEpsilon; //kOmegaSSTSato; //mixtureKEpsilon; //kEpsilon; //kOmegaSSTSato; //mixtureKEpsilon; //LaheyKEpsilon;

    turbulence      on;
    printCoeffs     on;
}

// ************************************************************************* //
