/*--------------------------------*- C++ -*----------------------------------*\
  =========                 |
  \\      /  F ield         | OpenFOAM: The Open Source CFD Toolbox
   \\    /   O peration     | Website:  https://openfoam.org
    \\  /    A nd           | Version:  6
     \\/     M anipulation  |
\*---------------------------------------------------------------------------*/
FoamFile
{
    version     2.0;
    format      ascii;
    class       dictionary;
    location    "constant";
    object      turbulenceProperties.air;
}
// * * * * * * * * * * * * * * * * * * * * * * * * * * * * * * * * * * * * * //

simulationType  RAS;

RAS
{
	//Esto estaba en el tutorial
    RASModel continuousGasKEpsilon;

   // turbulence      on;
   // printCoeffs     on;
	

   // RASModel  	kOmegaSST; //mixtureKEpsilon; //kEpsilon;  //kOmegaSST; //omega; //kEpsilon; //kOmegaSSTSato; //mixtureKEpsilon; //kEpsilon; //kOmegaSSTSato; //mixtureKEpsilon; //LaheyKEpsilon;

    turbulence      on;
    printCoeffs     on;

}

// ************************************************************************* //
