/*--------------------------------*- C++ -*----------------------------------*\
| =========                 |                                                 |
| \\      /  F ield         | OpenFOAM: The Open Source CFD Toolbox           |
|  \\    /   O peration     | Version:  2312                                  |
|   \\  /    A nd           | Website:  www.openfoam.com                      |
|    \\/     M anipulation  |                                                 |
\*---------------------------------------------------------------------------*/
FoamFile
{
    version     2.0;
    format      ascii;
    arch        "LSB;label=32;scalar=64";
    class       polyBoundaryMesh;
    location    "constant/cooler/polyMesh";
    object      boundary;
}
// * * * * * * * * * * * * * * * * * * * * * * * * * * * * * * * * * * * * * //

6
(
    emptyPatch
    {
        type            empty;
        inGroups        1(empty);
        nFaces          376;
        startFace       333;
    }
    minY
    {
        type            patch;
        nFaces          0;
        startFace       709;
    }
    maxY
    {
        type            patch;
        nFaces          5;
        startFace       709;
    }
    maxX
    {
        type            wall;
        inGroups        1(wall);
        nFaces          37;
        startFace       714;
    }
    cooler_to_water
    {
        type            mappedWall;
        inGroups        2(wall mappedPatch);
        nFaces          38;
        startFace       751;
        sampleMode      nearestPatchFace;
        sampleRegion    water;
        samplePatch     water_to_cooler;
    }
    procBoundary3to2
    {
        type            processor;
        inGroups        1(processor);
        nFaces          6;
        startFace       789;
        matchTolerance  0.0001;
        transform       unknown;
        myProcNo        3;
        neighbProcNo    2;
    }
)

// ************************************************************************* //
