/*--------------------------------*- C++ -*----------------------------------*\
| =========                 |                                                 |
| \\      /  F ield         | OpenFOAM: The Open Source CFD Toolbox           |
|  \\    /   O peration     | Version:  2312                                  |
|   \\  /    A nd           | Website:  www.openfoam.com                      |
|    \\/     M anipulation  |                                                 |
\*---------------------------------------------------------------------------*/
FoamFile
{
    version     2.0;
    format      ascii;
    arch        "LSB;label=32;scalar=64";
    class       polyBoundaryMesh;
    location    "constant/fluidRegion/polyMesh";
    object      boundary;
}
// * * * * * * * * * * * * * * * * * * * * * * * * * * * * * * * * * * * * * //

6
(
    inlet
    {
        type            patch;
        nFaces          0;
        startFace       195;
    }
    outlet
    {
        type            patch;
        nFaces          3;
        startFace       195;
    }
    fixedWalls
    {
        type            wall;
        inGroups        1(wall);
        nFaces          40;
        startFace       198;
    }
    frontAndright
    {
        type            symmetry;
        inGroups        1(symmetry);
        nFaces          158;
        startFace       238;
    }
    procBoundary3to1
    {
        type            processor;
        inGroups        1(processor);
        nFaces          40;
        startFace       396;
        matchTolerance  0.0001;
        transform       unknown;
        myProcNo        3;
        neighbProcNo    1;
    }
    procBoundary3to2
    {
        type            processor;
        inGroups        1(processor);
        nFaces          83;
        startFace       436;
        matchTolerance  0.0001;
        transform       unknown;
        myProcNo        3;
        neighbProcNo    2;
    }
)

// ************************************************************************* //
