/*--------------------------------*- C++ -*----------------------------------*\
  =========                 |
  \\      /  F ield         | OpenFOAM: The Open Source CFD Toolbox
   \\    /   O peration     | Website:  https://openfoam.org
    \\  /    A nd           | Version:  6
     \\/     M anipulation  |
\*---------------------------------------------------------------------------*/
FoamFile
{
    version     2.0;
    format      ascii;
    class       dictionary;
    object      blockMeshDict;
}
// * * * * * * * * * * * * * * * * * * * * * * * * * * * * * * * * * * * * * //


convertToMeters 1;


//- La mitad del angulo que se va a simular
halfAngle 0.5;

//- Radio del tubo interior [m]
rti 0.00405; //Diametro: 0.0081 m = 8.1 mm

//- Radio del tubo experior [m]
rte 0.00475; //Diametro: 0.0095 m = 9.5 mm

//- Radio del anulos interior [m]
rai 0.00705; //Diametro: 0.0141 m = 14.1 mm



//- Altura del tubo [m]
l 0.3;

radHalfAngle    #calc "degToRad($halfAngle)";

y1 	#calc "$rti*sin($radHalfAngle)";
y2 	#calc "$rte*sin($radHalfAngle)";
y3 	#calc "$rai*sin($radHalfAngle)";

x1	#calc "$rti*cos($radHalfAngle)";
x2	#calc "$rte*cos($radHalfAngle)";
x3	#calc "$rai*cos($radHalfAngle)";

y1min	#calc "-1.0*$y1";
y2min	#calc "-1.0*$y2";
y3min	#calc "-1.0*$y3";



// Cantidad de celdas
// Celdas en la vertical
cellV 100;
// Celdas en profundidad (si es 2D se pone 1)
cellP 1;
// Celdas radiales - Tubo
cellR1 100;

// Celdas radiales - solido
cellR2 10;

// Celdas radiales - anulo
cellR3 30;

vertices
(

	//Vertices parte interio tubo z = 0
    (0       0          0)		// Vertice 0
	($x1	$y1min		0)		// Vertice 1
	($x1	$y1			0)		// Vertice 2
	($x2	$y2min		0)		// Vertice 3
	($x2	$y2			0)		// Vertice 4
	($x3	$y3min		0)		// Vertice 5
	($x3	$y3			0)		// Vertice 6

    (0       0          $l)		// Vertice 7
	($x1	$y1min		$l)		// Vertice 8
	($x1	$y1			$l)		// Vertice 9
	($x2	$y2min		$l)		// Vertice 10
	($x2	$y2			$l)		// Vertice 11
	($x3	$y3min		$l)		// Vertice 12
	($x3	$y3			$l)		// Vertice 13
);


blocks
(
    hex (0 1 2 0 7 8 9 7) tubo ($cellR1 $cellP $cellV) simpleGrading (1 1 1)
    hex (1 3 4 2 8 10 11 9) solido ($cellR2 $cellP $cellV) simpleGrading (1 1 1)
    hex (3 5 6 4 10 12 13 11) anulo ($cellR3 $cellP $cellV) simpleGrading (1 1 1)
);

edges
(
    arc 1 2 (0 $rti 0)
    arc 8 9 (0 $rti $l)
    arc 3 4 (0 $rte 0)
    arc 10 11 (0 $rte $l)
    arc 5 6 (0 $rai 0)
    arc 12 13 (0 $rai $l)
);


boundary
(
    front
    {
        type wedge;
        faces
        (
			(0 1 8 7)
			(1 3 10 8)
			(3 5 12 10)
        );
    }
    back
    {
        type wedge;
        faces
        (
			(0 7 9 2)
			(2 9 11 4)
			(4 11 13 6)		
        );
    }
    inlet
    {
        type patch;
        faces
        (
            (0 2 1 0)
        );
    }
    outlet
    {
        type patch;
        faces
        (
            (7 8 9 7)
        );
    }

    inlet_primario
    {
        type patch;
        faces
        (
            (10 12 13 11)
        );
    }
    outlet_primario
    {
        type patch;
        faces
        (
            (3 4 6 5)
        );
    }

    axis
    {
        type empty;
        faces
        (
            (0 7 7 0)
        );
    }
    pared
    {
        type wall;
        faces
        (
            (12 5 6 13)
            (8 10 11 9)
            (1 2 4 3)
        );
    }
);


// ************************************************************************* //
