/*--------------------------------*- C++ -*----------------------------------*\
|       ______          _   __           ______                               |
|      / ____/  ___    / | / /          / ____/  ____   ____ _   ____ ___     |
|     / / __   / _ \  /  |/ /  ______  / /_     / __ \ / __ `/  / __ `__ \    |
|    / /_/ /  /  __/ / /|  /  /_____/ / __/    / /_/ // /_/ /  / / / / / /    |
|    \____/   \___/ /_/ |_/          /_/       \____/ \__,_/  /_/ /_/ /_/     |
|    Copyright (C) 2015 - 2022 EPFL                                           |
\*---------------------------------------------------------------------------*/
FoamFile
{
    version     2.0;
    format      ascii;
    class       dictionary;
    object      CRmove;
}
//- In case one wants to move control rods, they should define the control rods
//  they want to move. CRs must be aligned with the z axis

zones 
( 

); 

//- Example
/*
controlRod
{
	startTime 200.5;
	endTime  201.7;
	speed	0.0; //- >0 means in the negative z direction
	initialDistanceFromMeshCR 0.0; 	//- Distance from the position defined in 
									//  the mesh (postive is towards the core) 
	followerName	follower; 
} 
*/
