/*--------------------------------*- C++ -*----------------------------------*\
|       ______          _   __           ______                               |
|      / ____/  ___    / | / /          / ____/  ____   ____ _   ____ ___     |
|     / / __   / _ \  /  |/ /  ______  / /_     / __ \ / __ `/  / __ `__ \    |
|    / /_/ /  /  __/ / /|  /  /_____/ / __/    / /_/ // /_/ /  / / / / / /    |
|    \____/   \___/ /_/ |_/          /_/       \____/ \__,_/  /_/ /_/ /_/     |
|    Copyright (C) 2015 - 2022 EPFL                                           |
\*---------------------------------------------------------------------------*/
FoamFile
{
    version     2.0;
    format      ascii;
    class       dictionary;
    object      blockMeshDict;
}
// * * * * * * * * * * * * * * * * * * * * * * * * * * * * * * * * * * * * * //

convertToMeters 1;

vertices
(
    (0      0       0)
    (0.5    0       0)
    (0.5    0.1     0)
    (0      0.1     0)

    (0      0       0.01)
    (0.5    0       0.01)
    (0.5    0.1     0.01)
    (0      0.1     0.01)

    (1.5    0       0)
    (2      0       0)
    (2      0.1     0)
    (1.5    0.1     0)

    (1.5    0       0.01)
    (2      0       0.01)
    (2      0.1     0.01)
    (1.5    0.1     0.01)

    /*
    (1.5 0.03 0)
    (2 0.03 0)
    (2 0.07 0)
    (1.5 0.07 0)

    (1.5 0.03 0.01)
    (2 0.03 0.01)
    (2 0.07 0.01)
    (1.5 0.07 0.01)
    */
    
);

blocks
(
    hex (0 1 2 3 4 5 6 7) low (10 1 1) simpleGrading (1 1 1)
    hex (1 8 11 2 5 12 15 6) mid (20 1 1) simpleGrading (1 1 1)
    hex (8 9 10 11 12 13 14 15) top (10 1 1) simpleGrading (1 1 1)
);

edges
(
);

boundary
(
    inlet
    {
        type wall;
        faces
        (
            (0 4 7 3)
        );
    }
    outlet
    {
        type wall;
        faces
        (
            (9 10 14 13)
        );
    }
    fixedWalls
    {
        type empty;
        faces
        (
            (4 5 6 7)
            (5 12 15 6)
            (12 13 14 15)
            (2 3 7 6)
            (11 2 6 15)
            (10 11 15 14)
            (0 1 5 4)
            (1 8 12 5)
            (8 9 13 12)
            (0 3 2 1)
            (1 2 11 8)
            (8 11 10 9)
        );
    }
);

mergePatchPairs
(
);

// ************************************************************************* //
