/*--------------------------------*- C++ -*----------------------------------*\
  =========                 |
  \\      /  F ield         | OpenFOAM: The Open Source CFD Toolbox
   \\    /   O peration     | Website:  https://openfoam.org
    \\  /    A nd           | Version:  6
     \\/     M anipulation  |
\*---------------------------------------------------------------------------*/
FoamFile
{
    version     2.0;
    format      ascii;
    class       volScalarField;
    location    "0";
    object      p;
}
// * * * * * * * * * * * * * * * * * * * * * * * * * * * * * * * * * * * * * //

dimensions      [1 -1 -2 0 0 0 0];

internalField   uniform 101325;

boundaryField
{
    inlet
    {
        type            calculated;
        value           uniform 101325;
    }
    outlet
    {
        type            calculated;
        value           uniform 101325;
    }

	front
    {
        type            wedge;
    }

	back
    {
        type            wedge;
    }

	pared
	{
		type            calculated;
        value           uniform 101325;
	} 

	region0_to_solido
    {
        type            calculated;
        value           uniform 101325;
    }
}


// ************************************************************************* //
