/*--------------------------------*- C++ -*----------------------------------*\
  =========                 |
  \\      /  F ield         | OpenFOAM: The Open Source CFD Toolbox
   \\    /   O peration     | Website:  https://openfoam.org
    \\  /    A nd           | Version:  6
     \\/     M anipulation  |
\*---------------------------------------------------------------------------*/
FoamFile
{
    version     2.0;
    format      ascii;
    class       volVectorField;
    location    "0";
    object      U.water;
}
// * * * * * * * * * * * * * * * * * * * * * * * * * * * * * * * * * * * * * //

dimensions      [0 1 -1 0 0 0 0];

internalField   uniform (0 0 0.3);

boundaryField
{
    inlet
    {
        //type               	fixedValue;
		//value           uniform (0 0 0.3);
		type                flowRateInletVelocity;
        massFlowRate        0.025;
        extrapolateProfile  yes;
        rho                 rho;
        rhoInlet            1620.94;;
        value               uniform (0 0 0);
    }

    outlet
    {
		//type            zeroGradient;

        type            pressureInletOutletVelocity;
        phi             phi.water;
        value           uniform (0 0 0.3);

    }
    
	front
    {
        type            wedge;
    }

	back
    {
        type            wedge;
    }

	pared
	{
		 type            fixedValue;
        value           uniform (0 0 0);
	} 


	region0_to_solido
	{
        type            fixedValue;
        value           uniform (0 0 0);
    }
}


// ************************************************************************* //
