/*--------------------------------*- C++ -*----------------------------------*\
| =========                 |                                                 |
| \\      /  F ield         | OpenFOAM: The Open Source CFD Toolbox           |
|  \\    /   O peration     | Version:  2312                                  |
|   \\  /    A nd           | Website:  www.openfoam.com                      |
|    \\/     M anipulation  |                                                 |
\*---------------------------------------------------------------------------*/
FoamFile
{
    version     2.0;
    format      ascii;
    arch        "LSB;label=32;scalar=64";
    class       polyBoundaryMesh;
    location    "constant/fluidRegion/polyMesh";
    object      boundary;
}
// * * * * * * * * * * * * * * * * * * * * * * * * * * * * * * * * * * * * * //

7
(
    inlet
    {
        type            patch;
        nFaces          3;
        startFace       192;
    }
    outlet
    {
        type            patch;
        nFaces          3;
        startFace       195;
    }
    fixedWalls
    {
        type            wall;
        inGroups        1(wall);
        nFaces          78;
        startFace       198;
    }
    frontAndright
    {
        type            symmetry;
        inGroups        1(symmetry);
        nFaces          40;
        startFace       276;
    }
    procBoundary1to0
    {
        type            processor;
        inGroups        1(processor);
        nFaces          83;
        startFace       316;
        matchTolerance  0.0001;
        transform       unknown;
        myProcNo        1;
        neighbProcNo    0;
    }
    procBoundary1to2
    {
        type            processor;
        inGroups        1(processor);
        nFaces          83;
        startFace       399;
        matchTolerance  0.0001;
        transform       unknown;
        myProcNo        1;
        neighbProcNo    2;
    }
    procBoundary1to3
    {
        type            processor;
        inGroups        1(processor);
        nFaces          40;
        startFace       482;
        matchTolerance  0.0001;
        transform       unknown;
        myProcNo        1;
        neighbProcNo    3;
    }
)

// ************************************************************************* //
