/*--------------------------------*- C++ -*----------------------------------*\
|       ______          _   __           ______                               |
|      / ____/  ___    / | / /          / ____/  ____   ____ _   ____ ___     |
|     / / __   / _ \  /  |/ /  ______  / /_     / __ \ / __ `/  / __ `__ \    |
|    / /_/ /  /  __/ / /|  /  /_____/ / __/    / /_/ // /_/ /  / / / / / /    |
|    \____/   \___/ /_/ |_/          /_/       \____/ \__,_/  /_/ /_/ /_/     |
|    Copyright (C) 2015 - 2022 EPFL                                           |
\*---------------------------------------------------------------------------*/
FoamFile
{
    version     2.0;
    format      ascii;
    class       dictionary;
    object      blockMeshDict;
}
// * * * * * * * * * * * * * * * * * * * * * * * * * * * * * * * * * * * * * //

convertToMeters 1e-6;

vertices
(
    (0      0     0)
    (1      0     0)
    (1      1     0)
    (0      1     0)

    (0      0     1)
    (1      0     1)
    (1      1     1)
    (0      1     1)

    /*
    (1.5 0.03 0)
    (2 0.03 0)
    (2 0.07 0)
    (1.5 0.07 0)

    (1.5 0.03 0.01)
    (2 0.03 0.01)
    (2 0.07 0.01)
    (1.5 0.07 0.01)
    */
    
);

blocks
(
    hex (0 1 2 3 4 5 6 7) low (1 1 1) simpleGrading (1 1 1)
);

edges
(
);

boundary
(
);

mergePatchPairs
(
);

// ************************************************************************* //
