/*--------------------------------*- C++ -*----------------------------------*\
|       ______          _   __           ______                               |
|      / ____/  ___    / | / /          / ____/  ____   ____ _   ____ ___     |
|     / / __   / _ \  /  |/ /  ______  / /_     / __ \ / __ `/  / __ `__ \    |
|    / /_/ /  /  __/ / /|  /  /_____/ / __/    / /_/ // /_/ /  / / / / / /    |
|    \____/   \___/ /_/ |_/          /_/       \____/ \__,_/  /_/ /_/ /_/     |
|    Copyright (C) 2015 - 2022 EPFL                                           |
\*---------------------------------------------------------------------------*/
FoamFile
{
    version     2.0;
    format      ascii;
    class       dictionary;
    object      fvSolution;
}
// * * * * * * * * * * * * * * * * * * * * * * * * * * * * * * * * * * * * * //

solvers
{
    ".*"
    {
        solver          PCG;
        preconditioner  DIC;
        tolerance       1e-06;
        relTol          0.001;
/*
        solver          GAMG;
        tolerance       1e-06;
        relTol          0.001;
        smoother        GaussSeidel;
        cacheAgglomeration true;
        nCellsInCoarsestLevel 50;
        agglomerator    faceAreaPair;
        mergeLevels     1;
	processorAgglomerator masterCoarsest; 
*/
    }
    "fuelDisp"
    {

        solver          PBiCG;
        preconditioner  DILU;
        tolerance       1e-6;
        relTol          0.001;
    }
    "CRDisp"
    {

        solver          PBiCG;
        preconditioner  DILU;
        tolerance       1e-6;
        relTol          0.001;
    }
}
stressAnalysis
{
    compactNormalStress yes;
    nCorrectors     3;
    D               1e-06;
}
relaxationFactors
{
    fields
    {
	   disp 0.99;
    }
}
// ************************************************************************* //
