/*--------------------------------*- C++ -*----------------------------------*\
| =========                 |                                                 |
| \\      /  F ield         | OpenFOAM: The Open Source CFD Toolbox           |
|  \\    /   O peration     | Version:  2312                                  |
|   \\  /    A nd           | Website:  www.openfoam.com                      |
|    \\/     M anipulation  |                                                 |
\*---------------------------------------------------------------------------*/
FoamFile
{
    version     2.0;
    format      ascii;
    arch        "LSB;label=32;scalar=64";
    class       polyBoundaryMesh;
    location    "constant/polyMesh";
    object      boundary;
}
// * * * * * * * * * * * * * * * * * * * * * * * * * * * * * * * * * * * * * //

5
(
    emptyPatch
    {
        type            empty;
        inGroups        1(empty);
        nFaces          6600;
        startFace       6540;
    }
    minY
    {
        type            patch;
        nFaces          45;
        startFace       13140;
    }
    maxY
    {
        type            patch;
        nFaces          45;
        startFace       13185;
    }
    maxX
    {
        type            wall;
        inGroups        1(wall);
        nFaces          75;
        startFace       13230;
    }
    minX
    {
        type            wall;
        inGroups        1(wall);
        nFaces          60;
        startFace       13305;
    }
)

// ************************************************************************* //
