/*--------------------------------*- C++ -*----------------------------------*\
| =========                 |                                                 |
| \\      /  F ield         | OpenFOAM: The Open Source CFD Toolbox           |
|  \\    /   O peration     | Version:  v2306                                 |
|   \\  /    A nd           | Website:  www.openfoam.com                      |
|    \\/     M anipulation  |                                                 |
\*---------------------------------------------------------------------------*/
FoamFile
{
    version     2.0;
    format      ascii;
    class       dictionary;
    object      blockMeshDict;
}
// * * * * * * * * * * * * * * * * * * * * * * * * * * * * * * * * * * * * * //

scale   1e-3;

vertices
(
//B1
    (0    0 -1) //0
    (2    0 -1) //1
    (2  200 -1) //2
    (0  200 -1) //3

    (0    0  1) //4
    (2    0  1) //5
    (2  200  1) //6
    (0  200  1) //7
//B2	
    (2    0 -1) //8
    (10   0 -1) //9
    (10 200 -1) //10
    (2  200 -1) //11

    (2    0  1) //12
    (10   0  1) //13
    (10 200  1) //14
    (2  200  1) //15
//B3
    (10    0 -1) //16
    (18    0 -1) //17
    (18  200 -1) //18
    (10  200 -1) //19

    (10    0  1) //20
    (18    0  1) //21
    (18  200  1) //22
    (10  200  1) //23
//B4
    (18    0 -1) //24
    (20    0 -1) //25
    (20  200 -1) //26
    (18  200 -1) //27

    (18    0  1) //28
    (20    0  1) //29
    (20  200  1) //30
    (18  200  1) //31
);

blocks
(
    hex (0 1 2 3 4 5 6 7) (5 120 1) simpleGrading (1 1 1)
	hex (8 9 10 11 12 13 14 15) (20 150 1) simpleGrading (2.5 1 1)
    hex (16 17 18 19 20 21 22 23) (20 150 1) simpleGrading (0.4 1 1)
	hex (24 25 26 27 28 29 30 31) (5 150 1) simpleGrading (1 1 1)
);

edges
(
);

boundary
(
    merge1 // b1 sag
    {
        type patch;
        faces
        (
            (1 2 6 5)
        );
    }    
	merge2 // b2 sol
    {
        type patch;
        faces
        (
            (8 11 15 12)
        );
    }
	merge3 // b2 sag
    {
        type patch;
        faces
        (
            (9 10 14 13)
        );
    }
    merge4 // b3 sol
    {
        type patch;
        faces
        (
            (16 19 23 20)
        );
    }
    merge5 // b3 sag
    {
        type patch;
        faces
        (
            (17 18 22 21)
        );
    } 	
	merge6 // b4 sol
    {
        type patch;
        faces
        (
            (24 27 31 28)
        );
    }	

    emptyPatch
    {
        type empty;
        faces
        (
            (0 3 2 1)
            (4 5 6 7)
            (8 11 10 9)
            (12 13 14 15)
			(16 19 18 17)
            (20 21 22 23)
			(24 27 26 25)
            (28 29 30 31)
        );
    }
    minY
    {
        type patch;
        faces
        (
            (1 5 4 0)
			(9 13 12 8)
			(17 21 20 16)
			(25 29 28 24)
        );
    }
    maxY
    {
        type patch;
        faces
        (
            (3 7 6 2)
			(11 15 14 10)
			(19 23 22 18)
			(27 31 30 26)
        );
    }
    maxX
    {
        type wall;
        faces
        (
            (26 30 29 25)
        );
    }
    minX
    {
        type wall;
        faces
        (
            (0 3 4 7)
        );
    }	
);

mergePatchPairs
(
	(merge1 merge2)
	(merge3 merge4)
	(merge5 merge6)
);


// ************************************************************************* //
