/*--------------------------------*- C++ -*----------------------------------*\
|       ______          _   __           ______                               |
|      / ____/  ___    / | / /          / ____/  ____   ____ _   ____ ___     |
|     / / __   / _ \  /  |/ /  ______  / /_     / __ \ / __ `/  / __ `__ \    |
|    / /_/ /  /  __/ / /|  /  /_____/ / __/    / /_/ // /_/ /  / / / / / /    |
|    \____/   \___/ /_/ |_/          /_/       \____/ \__,_/  /_/ /_/ /_/     |
|    Copyright (C) 2015 - 2022 EPFL                                           |
\*---------------------------------------------------------------------------*/
FoamFile
{
    version     2.0;
    format      ascii;
    class       dictionary;
    object      decomposeParDict;
}
// * * * * * * * * * * * * * * * * * * * * * * * * * * * * * * * * * * * * * //

numberOfSubdomains  12;

//- Keep owner and neighbour on same processor for faces in zones:
// preserveFaceZones (heater solid1 solid3);

method          scotch;
// method          hierarchical;
// method          simple;
// method          manual;

simpleCoeffs
{
    n           (2 2 1);
    delta       0.001;
}

hierarchicalCoeffs
{
    n           (2 2 1);
    delta       0.001;
    order       xyz;
}

scotchCoeffs
{
    //processorWeights
    //(
    //    1
    //    1
    //    1
    //    1
    //);
    //writeGraph  true;
    //strategy "b";
}

manualCoeffs
{
    dataFile    "decompositionData";
}

//// Is the case distributed
//distributed     yes;
//// Per slave (so nProcs-1 entries) the directory above the case.
//roots
//(
//    "/tmp"
//    "/tmp"
//);

// ************************************************************************* //
