/*--------------------------------*- C++ -*----------------------------------*\
|       ______          _   __           ______                               |
|      / ____/  ___    / | / /          / ____/  ____   ____ _   ____ ___     |
|     / / __   / _ \  /  |/ /  ______  / /_     / __ \ / __ `/  / __ `__ \    |
|    / /_/ /  /  __/ / /|  /  /_____/ / __/    / /_/ // /_/ /  / / / / / /    |
|    \____/   \___/ /_/ |_/          /_/       \____/ \__,_/  /_/ /_/ /_/     |
|    Copyright (C) 2015 - 2022 EPFL                                           |
\*---------------------------------------------------------------------------*/
FoamFile
{
    version     2.0;
    format      ascii;
    class       polyBoundaryMesh;
    object      boundary;
}
// * * * * * * * * * * * * * * * * * * * * * * * * * * * * * * * * * * * * * //

4
(
    fixedWalls
    {
        type            wall;
        inGroups        1(wall);
        nFaces          1000;
        startFace       3200;
    }
    inlet0
    {
        type            wall;
        inGroups        1(wall);
        nFaces          25;
        startFace       4200;
    }
    inlet1
    {
        type            wall;
        inGroups        1(wall);
        nFaces          25;
        startFace       4225;
    }
    outlets
    {
        type            wall;
        inGroups        1(wall);
        nFaces          50;
        startFace       4250;
    }
)

// ************************************************************************* //
