/*--------------------------------*- C++ -*----------------------------------*\
| =========                 |                                                 |
| \\      /  F ield         | OpenFOAM: The Open Source CFD Toolbox           |
|  \\    /   O peration     | Version:  2306                                  |
|   \\  /    A nd           | Website:  www.openfoam.com                      |
|    \\/     M anipulation  |                                                 |
\*---------------------------------------------------------------------------*/
FoamFile
{
    version     2.0;
    format      ascii;
    arch        "LSB;label=32;scalar=64";
    class       volScalarField;
    location    "0/cladding";
    object      p;
}
// * * * * * * * * * * * * * * * * * * * * * * * * * * * * * * * * * * * * * //

dimensions      [ 1 -1 -2 0 0 0 0 ];

internalField   uniform 100000;

boundaryField
{
    bottom
    {
        type            calculated;
        value           uniform 100000;
    }
    front
    {
        type            symmetry;
        value           uniform 100000;
    }
    top
    {
        type            calculated;
        value           uniform 100000;
    }
    cladding_to_coolant
    {
        type            calculated;
        value           uniform 100000;
    }
    cladding_to_fuel
    {
        type            calculated;
        value           uniform 100000;
    }
}


// ************************************************************************* //
