/*--------------------------------*- C++ -*----------------------------------*\
| =========                 |                                                 |
| \\      /  F ield         | OpenFOAM: The Open Source CFD Toolbox           |
|  \\    /   O peration     | Version:  v2306                                 |
|   \\  /    A nd           | Website:  www.openfoam.com                      |
|    \\/     M anipulation  |                                                 |
\*---------------------------------------------------------------------------*/
FoamFile
{
    version     2.0;
    format      ascii;
    class       dictionary;
    object      blockMeshDict;
}
// * * * * * * * * * * * * * * * * * * * * * * * * * * * * * * * * * * * * * //

scale   1e-3;

vertices
(
//B1
    (0    0 -10) //0
    (6.52    0 -10) //1
    (6.52  2000 -10) //2
    (0  2000 -10) //3

    (0    0  10) //4
    (6.52    0  10) //5
    (6.52  2000  10) //6
    (0  2000  10) //7
//B2	
    (6.52    0 -10) //8
    (7.02   0 -10) //9
    (7.02 2000 -10) //10
    (6.52  2000 -10) //11

    (6.52    0  10) //12
    (7.02   0  10) //13
    (7.02 2000  10) //14
    (6.52  2000  10) //15
//B3
    (7.02    0 -10) //16
    (8    0 -10) //17
    (8  2000 -10) //18
    (7.02  2000 -10) //19

    (7.02    0  10) //20
    (8    0  10) //21
    (8  2000  10) //22
    (7.02  2000  10) //23
);

blocks
(
    hex (0 1 2 3 4 5 6 7) (5 120 20) simpleGrading (1 1 1)
	hex (8 9 10 11 12 13 14 15) (20 150 20) simpleGrading (2.5 1 1)
    hex (16 17 18 19 20 21 22 23) (20 150 20) simpleGrading (0.4 1 1)
);

edges
(
);

boundary
(
    merge1 // b1 sag
    {
        type patch;
        faces
        (
            (1 2 6 5)
        );
    }    
	merge2 // b2 sol
    {
        type patch;
        faces
        (
            (8 11 15 12)
        );
    }
	merge3 // b2 sag
    {
        type patch;
        faces
        (
            (9 10 14 13)
        );
    }
    merge4 // b3 sol
    {
        type patch;
        faces
        (
            (16 19 23 20)
        );
    }

    emptyPatch
    {
        type empty;
        faces
        (
            (0 3 2 1)
            (4 5 6 7)
            (8 11 10 9)
            (12 13 14 15)
			(16 19 18 17)
            (20 21 22 23)
        );
    }
    minY
    {
        type patch;
        faces
        (
            (1 5 4 0)
			(9 13 12 8)
			(17 21 20 16)
        );
    }
    maxY
    {
        type patch;
        faces
        (
            (3 7 6 2)
			(11 15 14 10)
			(19 23 22 18)
        );
    }
    maxX
    {
        type wall;
        faces
        (
            (18 22 21 17)
        );
    }
    minX
    {
        type wall;
        faces
        (
            (0 3 4 7)
        );
    }	
);

mergePatchPairs
(
	(merge1 merge2)
	(merge3 merge4)
);


// ************************************************************************* //
