/*--------------------------------*- C++ -*----------------------------------*\
|       ______          _   __           ______                               |
|      / ____/  ___    / | / /          / ____/  ____   ____ _   ____ ___     |
|     / / __   / _ \  /  |/ /  ______  / /_     / __ \ / __ `/  / __ `__ \    |
|    / /_/ /  /  __/ / /|  /  /_____/ / __/    / /_/ // /_/ /  / / / / / /    |
|    \____/   \___/ /_/ |_/          /_/       \____/ \__,_/  /_/ /_/ /_/     |
|    Copyright (C) 2015 - 2022 EPFL                                           |
\*---------------------------------------------------------------------------*/
FoamFile
{
    version     2.0;
    format      ascii;
    class       polyBoundaryMesh;
    object      boundary;
}
// * * * * * * * * * * * * * * * * * * * * * * * * * * * * * * * * * * * * * //

4
(
    inlet
    {
        type            patch;
        nFaces          25;
        startFace       1200;
    }
    outlet
    {
        type            patch;
        nFaces          25;
        startFace       1225;
    }
    fixedWalls
    {
        type            wall;
        inGroups        1(wall);
        nFaces          50;
        startFace       1250;
    }
    frontAndBack
    {
        type            empty;
        inGroups        1(empty);
        nFaces          1250;
        startFace       1300;
    }
)

// ************************************************************************* //
