/*--------------------------------*- C++ -*----------------------------------*\
| =========                 |                                                 |
| \\      /  F ield         | OpenFOAM: The Open Source CFD Toolbox           |
|  \\    /   O peration     | Version:  2312                                  |
|   \\  /    A nd           | Website:  www.openfoam.com                      |
|    \\/     M anipulation  |                                                 |
\*---------------------------------------------------------------------------*/
FoamFile
{
    version     2.0;
    format      ascii;
    arch        "LSB;label=32;scalar=64";
    class       polyBoundaryMesh;
    location    "constant/water/polyMesh";
    object      boundary;
}
// * * * * * * * * * * * * * * * * * * * * * * * * * * * * * * * * * * * * * //

8
(
    emptyPatch
    {
        type            empty;
        inGroups        1(empty);
        nFaces          1500;
        startFace       1441;
    }
    minY
    {
        type            patch;
        nFaces          0;
        startFace       2941;
    }
    maxY
    {
        type            patch;
        nFaces          20;
        startFace       2941;
    }
    maxX
    {
        type            wall;
        inGroups        1(wall);
        nFaces          0;
        startFace       2961;
    }
    water_to_heater
    {
        type            mappedWall;
        inGroups        2(wall mappedPatch);
        nFaces          61;
        startFace       2961;
        sampleMode      nearestPatchFace;
        sampleRegion    heater;
        samplePatch     heater_to_water;
    }
    procBoundary3to0
    {
        type            processor;
        inGroups        1(processor);
        nFaces          20;
        startFace       3022;
        matchTolerance  0.0001;
        transform       unknown;
        myProcNo        3;
        neighbProcNo    0;
    }
    procBoundary3to1
    {
        type            processor;
        inGroups        1(processor);
        nFaces          1;
        startFace       3042;
        matchTolerance  0.0001;
        transform       unknown;
        myProcNo        3;
        neighbProcNo    1;
    }
    procBoundary3to2
    {
        type            processor;
        inGroups        1(processor);
        nFaces          39;
        startFace       3043;
        matchTolerance  0.0001;
        transform       unknown;
        myProcNo        3;
        neighbProcNo    2;
    }
)

// ************************************************************************* //
