/*--------------------------------*- C++ -*----------------------------------*\
|       ______          _   __           ______                               |
|      / ____/  ___    / | / /          / ____/  ____   ____ _   ____ ___     |
|     / / __   / _ \  /  |/ /  ______  / /_     / __ \ / __ `/  / __ `__ \    |
|    / /_/ /  /  __/ / /|  /  /_____/ / __/    / /_/ // /_/ /  / / / / / /    |
|    \____/   \___/ /_/ |_/          /_/       \____/ \__,_/  /_/ /_/ /_/     |
|    Copyright (C) 2015 - 2022 EPFL                                           |
\*---------------------------------------------------------------------------*/
FoamFile
{
    version     2.0;
    format      ascii;
    class       dictionary;
    object      controlDict;
}
// * * * * * * * * * * * * * * * * * * * * * * * * * * * * * * * * * * * * * //

application     FFSEulerFoam;

startFrom       startTime;

startTime       0;

stopAt          endTime; //writeNow;//

endTime         12;

deltaT          0.001;

writeControl    adjustableRunTime;

writeInterval   0.1;

purgeWrite      0;

writeFormat     ascii;

writePrecision  6;

writeCompression off;

timeFormat      general;

timePrecision   6;

runTimeModifiable true;

solveFluidMechanics true;

solveEnergy     true;

solveNeutronics false;

solveThermalMechanics false;

writeContinuityErrors true;

//- timeStep control options

adjustTimeStep      true;

maxDeltaT           0.01;

//- The following happens ONLY IF adjustTimeStep is true.
//  The time step will be adjusted so to have a Co = maxCoTwoPhase IF:
//  - both phases are present in the system;
//    OR
//  - the system supports phaseChange (i.e. a phaseChange model was specified
//    in phaseProperties) AND the maximum temperature difference between any
//    of the fluids temperature and saturation temperature is below
//    marginToPhaseChange K;
//  ELSE, the time step will be adjusted to have a Co = maxCo.
//
//  In short, for the twoPhase type of thermalHydraulics, the timeStep is
//  adjusted so that
//  - Co = maxCo if only one phase is present;
//  - Co = maxCoTwoPhase if both phases are present or if one phase is close to
//    saturation (either boiling or condensation);
maxCo               2.0;

maxCoTwoPhase       0.25;

marginToPhaseChange 20;

// ************************************************************************* //
