/*--------------------------------*- C++ -*----------------------------------*\
| =========                 |                                                 |
| \\      /  F ield         | OpenFOAM: The Open Source CFD Toolbox           |
|  \\    /   O peration     | Version:  2312                                  |
|   \\  /    A nd           | Website:  www.openfoam.com                      |
|    \\/     M anipulation  |                                                 |
\*---------------------------------------------------------------------------*/
FoamFile
{
    version     2.0;
    format      ascii;
    arch        "LSB;label=32;scalar=64";
    class       volScalarField;
    location    "0/fluidRegion";
    object      p_rgh;
}
// * * * * * * * * * * * * * * * * * * * * * * * * * * * * * * * * * * * * * //

dimensions      [1 -1 -2 0 0 0 0];

internalField   uniform 1.66027e+07;

boundaryField
{
    inlet
    {
        type            fixedFluxPressure;
        gradient        uniform 0;
        value           uniform 1.66027e+07;
    }
    outlet
    {
        type            fixedValue;
        value           uniform 1.66027e+07;
    }
    fixedWalls
    {
        type            fixedFluxPressure;
        gradient        uniform 0;
        value           uniform 1.66027e+07;
    }
    frontAndright
    {
        type            symmetry;
    }
    procBoundary2to0
    {
        type            processor;
        value           uniform 1.66027e+07;
    }
    procBoundary2to1
    {
        type            processor;
        value           uniform 1.66027e+07;
    }
    procBoundary2to3
    {
        type            processor;
        value           uniform 1.66027e+07;
    }
}


// ************************************************************************* //
