/*--------------------------------*- C++ -*----------------------------------*\
| =========                 |                                                 |
| \\      /  F ield         | OpenFOAM: The Open Source CFD Toolbox           |
|  \\    /   O peration     | Version:  2312                                  |
|   \\  /    A nd           | Website:  www.openfoam.com                      |
|    \\/     M anipulation  |                                                 |
\*---------------------------------------------------------------------------*/
FoamFile
{
    version     2.0;
    format      ascii;
    arch        "LSB;label=32;scalar=64";
    class       polyBoundaryMesh;
    location    "constant/fluidRegion/polyMesh";
    object      boundary;
}
// * * * * * * * * * * * * * * * * * * * * * * * * * * * * * * * * * * * * * //

7
(
    inlet
    {
        type            patch;
        nFaces          3;
        startFace       191;
    }
    outlet
    {
        type            patch;
        nFaces          3;
        startFace       194;
    }
    fixedWalls
    {
        type            wall;
        inGroups        1(wall);
        nFaces          40;
        startFace       197;
    }
    frontAndright
    {
        type            symmetry;
        inGroups        1(symmetry);
        nFaces          80;
        startFace       237;
    }
    procBoundary2to0
    {
        type            processor;
        inGroups        1(processor);
        nFaces          40;
        startFace       317;
        matchTolerance  0.0001;
        transform       unknown;
        myProcNo        2;
        neighbProcNo    0;
    }
    procBoundary2to1
    {
        type            processor;
        inGroups        1(processor);
        nFaces          83;
        startFace       357;
        matchTolerance  0.0001;
        transform       unknown;
        myProcNo        2;
        neighbProcNo    1;
    }
    procBoundary2to3
    {
        type            processor;
        inGroups        1(processor);
        nFaces          83;
        startFace       440;
        matchTolerance  0.0001;
        transform       unknown;
        myProcNo        2;
        neighbProcNo    3;
    }
)

// ************************************************************************* //
