/*--------------------------------*- C++ -*----------------------------------*\
  =========                 |
  \\      /  F ield         | OpenFOAM: The Open Source CFD Toolbox
   \\    /   O peration     | Website:  https://openfoam.org
    \\  /    A nd           | Version:  6
     \\/     M anipulation  |
\*---------------------------------------------------------------------------*/
FoamFile
{
    version     2.0;
    format      ascii;
    class       volScalarField;
    location    "0";
    object      alphat.water;
}
// * * * * * * * * * * * * * * * * * * * * * * * * * * * * * * * * * * * * * //

dimensions      [1 -1 -1 0 0 0 0];

internalField   uniform 1e-8;

boundaryField
{
    inlet
    {
        type            calculated;
        value           uniform 1e-8;
    }

    outlet
    {
        type            calculated;
        value           uniform 1e-8;
    }

	front
    {
        type            wedge;
    }

	back
    {
        type            wedge;
    }


	region0_to_solido
	{
       type            compressible::alphatWallBoilingWallFunction;
        otherPhase      steam; //gas;
        phaseType       liquid;
        Prt             0.85;
        Cmu             0.09;
        kappa           0.41;
        E               9.8;
        relax           0.01;
        dmdt            uniform 0;
        partitioningModel
        {
            type        Lavieville;
            alphaCrit   0.2;
        }
        nucleationSiteModel
        {
            type        LemmertChawla;
        }
        departureDiamModel
        {
            type        TolubinskiKostanchuk;
		//dRef  	0.0022;	
		//dMAx  	0.0028;		
        }
        departureFreqModel
        {
            type        Cole;
        }
        value           uniform 0.01;
    }


}


// ************************************************************************* //
