/*--------------------------------*- C++ -*----------------------------------*\
  =========                 |
  \\      /  F ield         | OpenFOAM: The Open Source CFD Toolbox
   \\    /   O peration     | Website:  https://openfoam.org
    \\  /    A nd           | Version:  6
     \\/     M anipulation  |
\*---------------------------------------------------------------------------*/
FoamFile
{
    version     2.0;
    format      ascii;
    class       volScalarField;
    location    "0";
    object      k.steam;
}
// * * * * * * * * * * * * * * * * * * * * * * * * * * * * * * * * * * * * * //

dimensions      [0 2 -2 0 0 0 0];

internalField   uniform 0.000054;

boundaryField
{
    inlet
    {
        type            fixedValue;
	    value           uniform 0.000054; //1.25e-5;
    }

    outlet
    {
        type            inletOutlet;
        phi             phi.steam;
        inletValue      $internalField;
        value           $internalField;
    }

	front
    {
        type            wedge;
    }

	back
    {
        type            wedge;
    }

	region0_to_solido
	{
        type            kqRWallFunction;
        value           uniform 0.000054;
    }

}


// ************************************************************************* //
