/*--------------------------------*- C++ -*----------------------------------*\
|       ______          _   __           ______                               |
|      / ____/  ___    / | / /          / ____/  ____   ____ _   ____ ___     |
|     / / __   / _ \  /  |/ /  ______  / /_     / __ \ / __ `/  / __ `__ \    |
|    / /_/ /  /  __/ / /|  /  /_____/ / __/    / /_/ // /_/ /  / / / / / /    |
|    \____/   \___/ /_/ |_/          /_/       \____/ \__,_/  /_/ /_/ /_/     |
|    Copyright (C) 2015 - 2022 EPFL                                           |
\*---------------------------------------------------------------------------*/
FoamFile
{
    version     2.0;
    format      ascii;
    class       dictionary;
    object      fvSchemes;
}
// * * * * * * * * * * * * * * * * * * * * * * * * * * * * * * * * * * * * * //

d2dt2Schemes
{
    default         steadyState;//Euler;//
}

ddtSchemes
{
    default         Euler;
}

gradSchemes
{
    default         leastSquares;
    grad(Disp)         leastSquares;
    grad(Tmech)         leastSquares;
}

divSchemes
{
    //default         Gauss linear;
    default         Gauss linear;
    div(sigmaD)     Gauss linear;
    div(fuelDisp)   Gauss upwind;
    div(CRDisp)   Gauss upwind;
}

laplacianSchemes
{
    default        none;
    laplacian(DD,D) Gauss linear corrected;
    laplacian(DT,T) Gauss linear corrected;
}

interpolationSchemes
{
    default         linear;
}

snGradSchemes
{
    default         none;
}

fluxRequired
{
    default         no;
    Disp               no;
    Tmech               no;
}

// ************************************************************************* //
