/*--------------------------------*- C++ -*----------------------------------*\
|       ______          _   __           ______                               |
|      / ____/  ___    / | / /          / ____/  ____   ____ _   ____ ___     |
|     / / __   / _ \  /  |/ /  ______  / /_     / __ \ / __ `/  / __ `__ \    |
|    / /_/ /  /  __/ / /|  /  /_____/ / __/    / /_/ // /_/ /  / / / / / /    |
|    \____/   \___/ /_/ |_/          /_/       \____/ \__,_/  /_/ /_/ /_/     |
|    Copyright (C) 2015 - 2022 EPFL                                           |
\*---------------------------------------------------------------------------*/
FoamFile
{
    version     2.0;
    format      ascii;
    class       dictionary;
    object      blockMeshDict;
}
// * * * * * * * * * * * * * * * * * * * * * * * * * * * * * * * * * * * * * //

convertToMeters 1;

vertices
(
    (0      0       0)   //0
    (0.63    0       0)
    (0.63    0.01355  0)
    (0      0.01355  0)

    (0      0       0.01355) //4
    (0.63    0       0.01355)
    (0.63    0.01355  0.01355)
    (0      0.01355  0.01355)

    (0      0       0.02615) //8
    (0.63    0       0.02615)
    (0.63    0.01355  0.02615)
    (0      0.01355  0.02615)
    
    (0      0       0.03245)  //12
    (0.63    0       0.03245)
    (0.63    0.01355  0.03245)
    (0      0.01355  0.03245)
    
    (0      0.02615       0)   //16  
    (0.63    0.02615       0)     
    (0.63    0.03245  0)    
    (0      0.03245  0)    

    (0      0.02615  0.01355) //20
    (0.63    0.02615  0.01355)
    (0.63    0.03245  0.01355)
    (0      0.03245  0.01355)

    (0      0.02615  0.02615) //24
    (0.63    0.02615  0.02615)
    (0.63    0.03245  0.02615)
    (0      0.03245  0.02615)
    
    (0      0.02615  0.03245)  //28
    (0.63    0.02615  0.03245)
    (0.63    0.03245  0.03245)
    (0      0.03245  0.03245)
    
    (4.288    0       0)   //32
    (4.288    0.01355  0)

    (4.288    0       0.01355) //34
    (4.288    0.01355  0.01355)

    (4.288    0       0.02615) //36
    (4.288    0.01355  0.02615)
    
    (4.288    0       0.03245)  //38
    (4.288    0.01355  0.03245)
    
    
    (4.288    0.02615       0)     //40
    (4.288    0.03245  0)    

    (4.288    0.02615  0.01355) //42
    (4.288    0.03245  0.01355)

    (4.288    0.02615  0.02615) //44
    (4.288    0.03245  0.02615)
    
    (4.288    0.02615  0.03245)  //46
    (4.288    0.03245  0.03245)

);

blocks
(
    hex (0 1 2 3 4 5 6 7) inletcorner (5 1 1) (1 1 1)
    hex (4 5 6 7 8 9 10 11) inletside (5 1 1) (1 1 1)
    hex (8 9 10 11 12 13 14 15) inletside (5 1 1) (1 1 1)
    
    hex (3 2 17 16 7 6 21 20) inletside (5 1 1) (1 1 1)
    hex (7 6 21 20 11 10 25 24) inletcenter (5 1 1) (1 1 1)
    hex (11 10 25 24 15 14 29 28) inletcenter (5 1 1) (1 1 1)
    
    hex (16 17 18 19 20 21 22 23) inletside (5 1 1) (1 1 1)
    hex (20 21 22 23 24 25 26 27) inletcenter (5 1 1) (1 1 1)
    hex (24 25 26 27 28 29 30 31) inletcenter (5 1 1) (1 1 1) 

    hex (1 32 33 2 5 34 35 6) heatedcorner (48 1 1)(1 1 1)
    hex (5 34 35 6 9 36 37 10) heatedside (48 1 1)(1 1 1)
    hex (9 36 37 10 13 38 39 14) heatedside (48 1 1)(1 1 1)
    
    hex (2 33 40 17 6 35 42 21) heatedside (48 1 1)(1 1 1)
    hex (6 35 42 21 10 37 44 25) heatedcenter (48 1 1)(1 1 1)
    hex (10 37 44 25 14 39 46 29) heatedcenter (48 1 1)(1 1 1)
    
    hex (17 40 41 18 21 42 43 22) heatedside (48 1 1)(1 1 1)
    hex (21 42 43 22 25 44 45 26) heatedcenter (48 1 1)(1 1 1)
    hex (25 44 45 26 29 46 47 30) heatedcenter (48 1 1)(1 1 1)
          
);

edges
(
);

boundary
(
    inlet
    {
        type patch;
        faces
        (
            (0 4 7 3)
            (4 8 11 7)
            (8 12 15 11)
            
            (3 7 20 16)
            (7 11 24 20)
            (11 15 28 24)
            
            (16 20 23 19)
            (20 24 27 23)
            (24 28 31 27)
            
        );
    }
    outlet
    {
        type patch;
        faces
        (
            (32 33 35 34)
            (34 35 37 36)
            (36 37 39 38)
            
            (33 40 42 35)
            (35 42 44 37)
            (37 44 46 39)
            
            (40 41 43 42)
            (42 43 45 44)
            (44 45 47 46)
       
        );
    }
    fixedWalls
    {
        type wall;
        faces
        (
            (0 1 5 4)//back
            (4 5 9 8)
            (8 9 13 12)
                    
            (1 32 34 5)
            (5 34 36 9)
            (9 36 38 13)
            
            (3 2 1 0)//left
            (16 17 2 3)
            (19 18 17 16)

            (2 33 32 1)
            (17 40 33 2)
            (18 41 40 17)
        );
    }
    frontAndright
    {
        type symmetry;
        faces
        (
            (18 19 23 22)//front
            (22 23 27 26)
            (26 27 31 30)

            (41 18 22 43)
            (43 22 26 45)
            (45 26 30 47)
            
            (12 13 14 15)//right
            (15 14 29 28)
            (28 29 30 31)

            (13 38 39 14)  
            (14 39 46 29) 
            (29 46 47 30)
        );
    }
);

mergePatchPairs
(
);

// ************************************************************************* //
