/*--------------------------------*- C++ -*----------------------------------*\
| =========                 |                                                 |
| \\      /  F ield         | OpenFOAM: The Open Source CFD Toolbox           |
|  \\    /   O peration     | Version:  2306                                  |
|   \\  /    A nd           | Website:  www.openfoam.com                      |
|    \\/     M anipulation  |                                                 |
\*---------------------------------------------------------------------------*/
// * * * * * * * * * * * * * * * * * * * * * * * * * * * * * * * * * * * * * //
FoamFile
{
    version         2;
    format          ascii;
    class           dictionary;
    location        "system";
    object          fvOptions;
}

energySource
{
    type            scalarSemiImplicitSource;
    active          true;
    selectionMode   all;
    volumeMode      specific;
    sources
    {
        h               ( 1E9 0 );
    }
}


// ************************************************************************* //
