/*--------------------------------*- C++ -*----------------------------------*\
| =========                 |                                                 |
| \\      /  F ield         | OpenFOAM: The Open Source CFD Toolbox           |
|  \\    /   O peration     | Version:  2312                                  |
|   \\  /    A nd           | Website:  www.openfoam.com                      |
|    \\/     M anipulation  |                                                 |
\*---------------------------------------------------------------------------*/
FoamFile
{
    version     2.0;
    format      ascii;
    arch        "LSB;label=32;scalar=64";
    class       polyBoundaryMesh;
    location    "constant/thermoMechanicalRegion/polyMesh";
    object      boundary;
}
// * * * * * * * * * * * * * * * * * * * * * * * * * * * * * * * * * * * * * //

3
(
    defaultFaces
    {
        type            empty;
        inGroups        1(empty);
        nFaces          6;
        startFace       1;
    }
    procBoundary0to1
    {
        type            processor;
        inGroups        1(processor);
        nFaces          2;
        startFace       7;
        matchTolerance  0.0001;
        transform       unknown;
        myProcNo        0;
        neighbProcNo    1;
    }
    procBoundary0to2
    {
        type            processor;
        inGroups        1(processor);
        nFaces          2;
        startFace       9;
        matchTolerance  0.0001;
        transform       unknown;
        myProcNo        0;
        neighbProcNo    2;
    }
)

// ************************************************************************* //
