/*--------------------------------*- C++ -*----------------------------------*\
|       ______          _   __           ______                               |
|      / ____/  ___    / | / /          / ____/  ____   ____ _   ____ ___     |
|     / / __   / _ \  /  |/ /  ______  / /_     / __ \ / __ `/  / __ `__ \    |
|    / /_/ /  /  __/ / /|  /  /_____/ / __/    / /_/ // /_/ /  / / / / / /    |
|    \____/   \___/ /_/ |_/          /_/       \____/ \__,_/  /_/ /_/ /_/     |
|    Copyright (C) 2015 - 2022 EPFL                                           |
\*---------------------------------------------------------------------------*/
FoamFile
{
    version     2.0;
    format      ascii;
    class       dictionary;
    object      thermoMechanicalProperties;
}
// * * * * * * * * * * * * * * * * * * * * * * * * * * * * * * * * * * * * * //

model 		linearElasticThermoMechanics;   //- No other models are currently
											//  available

//- Constants needed to calculate deformation of fuel, control rods AND 
//  structure (1D expansion for fuel and CR, displacement-based solver for 
//  structures)

planeStress     no;
linkedFuel      false; 	//-  True if there is contact between fuel and cladding 
						//   (expansion driven by cladding)
fuelOrientation (0 0 1); 
TStructRef		600;

zones
(

);

// ************************************************************************* //
